Circuit: * D:\UNI\Low_Power\Esercitazioni\Esercitazione_2\Draft1.asc

WARNING: Node N002 is floating.

WARNING: Less than two connections to node N002.  This node is used by M3.
Warning: Pd = 0 is less than W.
Warning: Ps = 0 is less than W.
Warning: Pd = 0 is less than W.
Warning: Ps = 0 is less than W.
Warning: Pd = 0 is less than W.
Warning: Ps = 0 is less than W.

Date: Fri Jul 09 18:39:47 2021
Total elapsed time: 0.062 seconds.

tnom = 27
temp = 27
method = trap
totiter = 223
traniter = 0
tranpoints = 0
accept = 0
rejected = 0
matrix size = 12
fillins = 0
solver = Normal
Matrix Compiler1: 554 bytes object code size  0.1/0.1/[0.0]
Matrix Compiler2: 920 bytes object code size  0.1/0.1/[0.1]

