Circuit: * C:\Users\andry\OneDrive\Desktop\Low_Power\Esercitazioni\Esercitazione_1\Spice\Esercitazione_3.asc

Warning: Pd = 0 is less than W.
Warning: Ps = 0 is less than W.
Warning: Pd = 0 is less than W.
Warning: Ps = 0 is less than W.
Warning: Pd = 0 is less than W.
Warning: Ps = 0 is less than W.
Warning: Pd = 0 is less than W.
Warning: Ps = 0 is less than W.
Direct Newton iteration for .op point succeeded.

Date: Sat Feb 13 20:35:36 2021
Total elapsed time: 0.079 seconds.

tnom = 27
temp = 27
method = modified trap
totiter = 3028
traniter = 3016
tranpoints = 1228
accept = 1174
rejected = 54
matrix size = 8
fillins = 0
solver = Normal
Matrix Compiler1:      14 opcodes  0.1/[0.0]/0.0
Matrix Compiler2: 580 bytes object code size  0.1/0.1/[0.1]

