Circuit: * C:\Users\andry\OneDrive\Desktop\Low_Power\Esercitazioni\Esercitazione_1\Spice\Esercitazione_1.asc

Warning: Pd = 0 is less than W.
Warning: Ps = 0 is less than W.
Warning: Pd = 0 is less than W.
Warning: Ps = 0 is less than W.
Direct Newton iteration for .op point succeeded.

Date: Sun Feb 07 22:06:18 2021
Total elapsed time: 0.129 seconds.

tnom = 27
temp = 27
method = modified trap
totiter = 2540
traniter = 2534
tranpoints = 1228
accept = 1174
rejected = 54
matrix size = 5
fillins = 0
solver = Normal
Matrix Compiler1: 132 bytes object code size  0.0/0.0/[0.0]
Matrix Compiler2: 335 bytes object code size  0.1/0.1/[0.0]

